!Arquivo com as tipologias das curvas de carga 

New Loadshape.RES-Type1_WD_A 24 1.0 Mult=(1.0    0.9592 0.9239 0.8906 0.8476 0.7873 0.6891 0.6111 0.5939 0.5981 0.6139 0.6518 0.6807 0.6838 0.6891 0.6697 0.6604 0.6658 0.7181 0.7591 0.7948 0.8714 0.9455 0.9962) 
New Loadshape.RES-Type1_SA_A 24 1.0 Mult=(1.0    0.9987 0.9688 0.9398 0.8827 0.8372 0.7541 0.6896 0.6591 0.6589 0.6702 0.7171 0.7365 0.7688 0.8169 0.7918 0.7553 0.73   0.7899 0.7871 0.8098 0.8973 0.9284 0.9877) 
New Loadshape.RES-Type1_SU_A 24 1.0 Mult=(0.9815 0.96   0.9292 0.8991 0.8752 0.845  0.7876 0.7408 0.699  0.6777 0.6773 0.6783 0.7088 0.7343 0.7868 0.7789 0.7571 0.7279 0.7792 0.8146 0.8434 0.913  0.9736 1.0)    
New Loadshape.RES-Type1_WD_B 24 1.0 Mult=(0.9796 0.9651 0.9599 0.9741 0.9595 0.9372 0.8832 0.8673 0.9312 0.9018 0.8912 0.9128 0.8638 0.8531 0.8972 0.8818 0.8856 0.8802 0.9239 0.9371 0.9624 0.9747 1.0    0.9823) 
New Loadshape.RES-Type1_SA_B 24 1.0 Mult=(0.8808 0.9244 1.0    0.9456 0.9196 0.9132 0.8147 0.8254 0.8102 0.7933 0.7625 0.7754 0.7675 0.7566 0.7214 0.772  0.7507 0.7624 0.8401 0.8106 0.8144 0.8723 0.8916 0.8725) 
New Loadshape.RES-Type1_SU_B 24 1.0 Mult=(0.9612 0.9257 0.9247 0.9435 0.96   0.9185 0.8847 0.8472 0.7989 0.8311 0.7919 0.806  0.7395 0.7404 0.7597 0.7869 0.7674 0.8046 0.841  0.8416 0.8434 0.9303 0.9874 1.0)    
New Loadshape.RES-Type1_WD_C 24 1.0 Mult=(0.9566 0.9524 0.9409 0.9294 0.9267 0.8481 0.7325 0.7336 0.8012 0.8425 0.8813 0.8763 0.832  0.8348 0.8991 0.8491 0.8026 0.789  0.7871 0.8337 0.9465 1.0    0.9896 0.9832) 
New Loadshape.RES-Type1_SA_C 24 1.0 Mult=(1.0    0.9199 0.8723 0.8702 0.8858 0.8254 0.7042 0.6898 0.7201 0.7245 0.7487 0.7165 0.6659 0.708  0.7296 0.7135 0.7294 0.7178 0.7802 0.8469 0.9114 0.9091 0.9373 0.9376) 
New Loadshape.RES-Type1_SU_C 24 1.0 Mult=(0.9444 0.8959 0.9106 0.92   0.9034 0.8379 0.7469 0.7212 0.7476 0.7336 0.7287 0.7462 0.7228 0.7198 0.7887 0.7726 0.7282 0.6935 0.8015 0.8346 0.9163 1.0    0.9862 0.9288) 
New Loadshape.RES-Type2_WD_A 24 1.0 Mult=(0.9987 0.9884 0.9617 0.9305 0.8966 0.8294 0.6886 0.5762 0.5341 0.5503 0.5718 0.5864 0.5918 0.6514 0.6782 0.67   0.6261 0.5821 0.6064 0.6573 0.7359 0.8678 0.9587 1.0)    
New Loadshape.RES-Type2_SA_A 24 1.0 Mult=(1.0    0.9595 0.9088 0.8896 0.8477 0.7939 0.7204 0.6368 0.6157 0.5595 0.5712 0.5702 0.6272 0.6675 0.7095 0.6476 0.631  0.6231 0.6102 0.6752 0.7386 0.7635 0.8369 0.9064) 
New Loadshape.RES-Type2_SU_A 24 1.0 Mult=(0.9905 0.9942 0.9656 0.9406 0.9386 0.8985 0.8174 0.7135 0.6287 0.5905 0.5755 0.5849 0.5774 0.6261 0.6424 0.6162 0.6317 0.6395 0.6552 0.6954 0.7566 0.8706 0.9201 1.0)    
New Loadshape.RES-Type2_WD_B 24 1.0 Mult=(0.772  0.7474 0.7229 0.7196 0.7347 0.7045 0.7073 0.7099 0.8806 0.9993 0.9414 0.9564 0.8942 0.923  0.9499 1.0    0.9405 0.8559 0.8408 0.8584 0.8397 0.823  0.8748 0.8236) 
New Loadshape.RES-Type2_SA_B 24 1.0 Mult=(0.9216 0.8741 0.855  0.883  0.8887 0.8597 0.8161 0.8721 0.9139 0.976  0.9487 0.8688 0.8874 0.8225 0.9273 0.8326 0.8525 0.7663 0.87   0.8734 0.908  0.8639 0.9247 1.0)    
New Loadshape.RES-Type2_SU_B 24 1.0 Mult=(0.9277 0.8579 0.8612 0.8934 0.8513 0.821  0.7848 0.8421 0.8215 0.8036 0.7089 0.6858 0.7396 0.8303 0.7906 0.7956 0.8156 0.8868 0.9054 0.9231 0.8948 0.8777 1.0    0.9631) 
New Loadshape.RES-Type2_WD_C 24 1.0 Mult=(1.0    0.9691 0.9407 0.9285 0.8957 0.8769 0.7011 0.6248 0.7171 0.7502 0.7759 0.8007 0.7221 0.7719 0.9406 0.9336 0.8584 0.7585 0.6621 0.6986 0.7893 0.7962 0.8827 0.9939) 
New Loadshape.RES-Type2_SA_C 24 1.0 Mult=(0.9712 0.9515 0.9454 1.0    0.9908 0.9072 0.7879 0.8363 0.8947 0.8587 0.9302 0.838  0.7166 0.9538 0.9818 0.9598 0.8991 0.8489 0.9061 0.9084 0.8401 0.8724 0.8791 0.9065) 
New Loadshape.RES-Type2_SU_C 24 1.0 Mult=(0.8303 0.7937 0.8394 0.8755 0.8711 0.8294 0.804  0.7906 0.738  0.6842 0.6666 0.6012 0.6311 0.6953 0.8233 0.8289 0.7378 0.8603 0.8788 0.8306 0.8707 0.927  0.9771 1.0)    
New Loadshape.RES-Type3_WD_A 24 1.0 Mult=(0.7914 0.7593 0.7434 0.7364 0.7282 0.7251 0.7304 0.7753 0.9745 0.9607 0.9736 1.0    0.978  0.975  0.9809 0.9744 0.9445 0.8878 0.8387 0.8389 0.8716 0.8637 0.8788 0.8377) 
New Loadshape.RES-Type3_SA_A 24 1.0 Mult=(1.0    0.9568 0.9268 0.9153 0.9065 0.8824 0.8295 0.8812 0.9365 0.9979 0.9527 0.8807 0.8843 0.871  0.7336 0.7074 0.7048 0.7889 0.9134 0.9971 0.9739 0.9771 0.9596 0.9276) 
New Loadshape.RES-Type3_SU_A 24 1.0 Mult=(0.8899 0.8693 0.8633 0.8764 0.8475 0.8362 0.7483 0.7385 0.7389 0.6624 0.709  0.7485 0.7221 0.7569 0.7491 0.8601 0.8641 0.9179 0.9602 0.9119 0.9852 1.0    0.9592 0.9564) 
New Loadshape.RES-Type3_WD_B 24 1.0 Mult=(0.5601 0.5699 0.5552 0.5478 0.5302 0.5155 0.5155 0.7882 0.9039 0.8873 0.9026 0.9093 0.8645 0.8499 0.9578 1.0    0.9266 0.8284 0.7315 0.7187 0.7071 0.6675 0.6331 0.5876) 
New Loadshape.RES-Type3_SA_B 24 1.0 Mult=(0.6937 0.772  0.7143 0.6702 0.6673 0.6714 0.6746 0.7217 0.7177 0.8909 0.8667 0.8611 0.8273 0.7256 0.8706 0.9001 0.7979 0.8363 0.9426 1.0    0.9455 0.9494 0.8492 0.7415) 
New Loadshape.RES-Type3_SU_B 24 1.0 Mult=(0.8097 0.7371 0.7241 0.734  0.7591 0.73   0.7195 0.6484 0.7534 0.6748 0.6956 0.5742 0.7265 0.7566 0.8237 0.8934 0.8362 0.9292 1.0    0.9976 0.9793 0.9828 0.9066 0.8719) 
New Loadshape.RES-Type3_WD_C 24 1.0 Mult=(0.5994 0.5969 0.5752 0.5505 0.5106 0.4479 0.4507 0.7166 0.9773 1.0    0.9769 0.9697 0.8305 0.8197 0.8517 0.8229 0.7899 0.7791 0.7431 0.6573 0.5838 0.543  0.5781 0.5598) 
New Loadshape.RES-Type3_SA_C 24 1.0 Mult=(0.7719 0.7978 0.7688 0.7477 0.7142 0.648  0.5829 0.6624 0.8947 0.9684 0.9279 0.9102 0.7989 0.6645 0.6587 0.6486 0.7843 0.8113 0.829  0.869  0.8044 0.8902 1.0    0.8624) 
New Loadshape.RES-Type3_SU_C 24 1.0 Mult=(0.9099 0.915  0.8849 0.8739 0.8519 0.8062 0.7744 0.7709 0.813  0.7947 0.9059 0.8954 0.8674 0.7865 0.7678 0.875  0.8742 0.9213 0.9379 1.0    0.9952 0.9013 0.9135 0.8904) 
New Loadshape.COM-Type1_WD_A 24 1.0 Mult=(0.68   0.6874 0.6911 0.6956 0.6918 0.687  0.6786 0.7195 0.8879 0.9869 1.0    0.9819 0.867  0.876  0.9333 0.9659 0.9595 0.8763 0.7855 0.7288 0.7089 0.6865 0.6764 0.6716) 
New Loadshape.COM-Type1_SA_A 24 1.0 Mult=(0.753  0.7731 0.7709 0.7593 0.7559 0.7589 0.7432 0.7572 0.9101 0.9598 0.9737 1.0    0.93   0.8488 0.8495 0.811  0.7599 0.7599 0.7526 0.752  0.73   0.7208 0.7131 0.7135) 
New Loadshape.COM-Type1_SU_A 24 1.0 Mult=(0.8815 0.9121 0.9038 0.9025 0.8973 0.9464 0.8707 0.8974 0.9166 1.0    0.8995 0.9018 0.9472 0.9351 0.9225 0.9169 0.9298 0.9276 0.9686 0.9958 0.9645 0.9514 0.9498 0.9574) 
New Loadshape.COM-Type1_WD_B 24 1.0 Mult=(0.7266 0.7177 0.7207 0.7243 0.7169 0.7246 0.7116 0.7404 0.8677 0.927  0.9056 0.8951 0.8087 0.8311 0.9691 1.0    0.9687 0.8877 0.8036 0.7807 0.766  0.7088 0.7122 0.7261) 
New Loadshape.COM-Type1_SA_B 24 1.0 Mult=(0.847  0.8716 0.846  0.8531 0.8024 0.7966 0.8171 0.8342 0.9583 1.0    0.9834 0.9296 0.8993 0.8573 0.8435 0.8483 0.9071 0.937  0.8992 0.8681 0.7693 0.7842 0.82   0.7953) 
New Loadshape.COM-Type1_SU_B 24 1.0 Mult=(0.9342 0.9587 0.9759 0.9474 0.9432 0.9169 0.8743 0.9001 1.0    0.9646 0.899  0.8697 0.8218 0.8012 0.7993 0.7791 0.7828 0.8355 0.9459 0.976  0.9742 0.9454 0.9256 0.9683) 
New Loadshape.COM-Type1_WD_C 24 1.0 Mult=(0.8265 0.8282 0.828  0.8303 0.8283 0.8371 0.8156 0.7887 0.9234 0.9607 0.956  0.9346 0.878  0.9127 0.9839 0.9844 1.0    0.9141 0.8683 0.8782 0.8837 0.7941 0.805  0.8155) 
New Loadshape.COM-Type1_SA_C 24 1.0 Mult=(0.8639 0.8715 0.87   0.8808 0.8873 0.8714 0.8582 0.8192 0.9431 1.0    0.9572 0.9013 0.8776 0.8439 0.8415 0.7857 0.7813 0.8551 0.8372 0.8788 0.8105 0.809  0.8238 0.8239) 
New Loadshape.COM-Type1_SU_C 24 1.0 Mult=(0.898  0.9242 0.88   0.889  0.8838 0.9151 0.8955 0.8737 0.967  0.9531 0.8728 0.8059 0.8168 0.7799 0.7806 0.8076 0.8191 0.8548 0.9324 1.0    0.9633 0.913  0.8756 0.8722) 
New Loadshape.COM-Type2_WD_A 24 1.0 Mult=(0.5893 0.5669 0.549  0.5441 0.5335 0.5057 0.4524 0.566  0.835  0.9653 0.9977 1.0    0.8765 0.8619 0.9628 0.9822 0.9602 0.8871 0.7173 0.6832 0.644  0.63   0.6386 0.6319) 
New Loadshape.COM-Type2_SA_A 24 1.0 Mult=(0.8028 0.772  0.749  0.7131 0.7087 0.6869 0.6394 0.6715 0.8664 0.9534 1.0    0.9696 0.8414 0.8135 0.7389 0.7373 0.7    0.7596 0.7668 0.7589 0.7235 0.7108 0.7776 0.8018) 
New Loadshape.COM-Type2_SU_A 24 1.0 Mult=(0.9041 0.8899 0.872  0.8513 0.8288 0.7961 0.7835 0.7588 0.7983 0.8162 0.8255 0.8284 0.828  0.8806 0.86   0.8788 0.8751 0.9066 0.9747 0.9737 0.9672 0.9629 1.0    0.9602) 
New Loadshape.COM-Type2_WD_B 24 1.0 Mult=(0.3286 0.3241 0.3161 0.3016 0.2776 0.3122 0.38   0.5428 0.8791 0.9682 1.0    0.961  0.844  0.8264 0.9354 0.9457 0.8967 0.8536 0.6311 0.5774 0.4721 0.4554 0.4138 0.3654) 
New Loadshape.COM-Type2_SA_B 24 1.0 Mult=(0.5986 0.5805 0.549  0.5489 0.4825 0.5171 0.615  0.6652 0.8946 0.9784 1.0    0.9556 0.8169 0.7694 0.6938 0.6551 0.7109 0.7188 0.7454 0.7012 0.6959 0.6337 0.4542 0.5083) 
New Loadshape.COM-Type2_SU_B 24 1.0 Mult=(0.6393 0.6408 0.641  0.5729 0.6231 0.6296 0.6084 0.6141 0.7041 0.8296 0.8712 0.8727 0.8417 0.8664 0.8673 0.7855 0.8099 0.9304 1.0    0.7667 0.8067 0.7683 0.724  0.7212) 
New Loadshape.COM-Type2_WD_C 24 1.0 Mult=(0.5824 0.5692 0.5675 0.5597 0.5549 0.5472 0.5102 0.6243 0.9116 0.994  1.0    0.9563 0.8333 0.8501 0.9275 0.9436 0.9459 0.8922 0.6622 0.6401 0.6449 0.627  0.612  0.5971) 
New Loadshape.COM-Type2_SA_C 24 1.0 Mult=(0.8051 0.812  0.7979 0.7923 0.8006 0.782  0.7187 0.7219 0.9495 1.0    0.9789 0.923  0.817  0.8177 0.7223 0.7056 0.7046 0.7364 0.7724 0.7618 0.7133 0.709  0.7823 0.764)  
New Loadshape.COM-Type2_SU_C 24 1.0 Mult=(0.908  0.9084 0.8767 0.8766 0.8996 0.8724 0.8488 0.7948 0.7989 0.8435 0.8339 0.8402 0.774  0.7714 0.7926 0.7883 0.7768 0.8462 0.8934 1.0    0.9929 0.9434 0.9292 0.9154) 
New Loadshape.COM-Type3_WD_A 24 1.0 Mult=(0.5008 0.4789 0.473  0.4649 0.4795 0.475  0.4442 0.5598 0.8712 0.9799 1.0    0.9164 0.7714 0.9161 0.9569 0.9536 0.8865 0.7888 0.716  0.6889 0.6605 0.6029 0.5812 0.546)  
New Loadshape.COM-Type3_SA_A 24 1.0 Mult=(0.8976 0.844  0.8405 0.7784 0.773  0.7363 0.7101 0.6955 0.8528 0.8772 1.0    0.9722 0.8255 0.7613 0.7511 0.6495 0.6814 0.699  0.9017 0.9005 0.9079 0.8513 0.8954 0.9164) 
New Loadshape.COM-Type3_SU_A 24 1.0 Mult=(0.919  0.8846 0.9294 0.9465 1.0    0.9446 0.8273 0.7426 0.7868 0.894  0.8785 0.8111 0.7515 0.7513 0.7302 0.7916 0.7593 0.866  0.9096 0.8865 0.8665 0.8455 0.8845 0.8781) 
New Loadshape.COM-Type3_WD_B 24 1.0 Mult=(0.4699 0.4523 0.4524 0.4597 0.4876 0.4725 0.4453 0.5911 0.8342 0.9424 0.9772 0.8844 0.7655 0.8915 1.0    0.965  0.9181 0.8069 0.6944 0.6783 0.671  0.6171 0.5839 0.5608) 
New Loadshape.COM-Type3_SA_B 24 1.0 Mult=(0.8805 0.7453 0.7208 0.7256 0.7476 0.726  0.6498 0.6348 0.7812 0.863  0.9722 1.0    0.8537 0.8486 0.7972 0.7388 0.7388 0.741  0.875  0.9549 0.9506 0.8721 0.8932 0.8886) 
New Loadshape.COM-Type3_SU_B 24 1.0 Mult=(0.8879 0.8888 0.8914 0.8776 0.9039 0.9037 0.83   0.8304 0.8007 0.9458 0.9431 0.9289 0.9165 0.9315 0.9535 1.0    0.9541 0.9234 0.935  0.9631 0.9729 0.9506 0.9678 0.9368) 
New Loadshape.COM-Type3_WD_C 24 1.0 Mult=(0.5486 0.5163 0.5337 0.5028 0.525  0.5042 0.4555 0.548  0.8409 0.9671 0.9685 0.8784 0.785  0.9743 1.0    0.9913 0.9064 0.8224 0.8156 0.8003 0.7908 0.744  0.6886 0.6494) 
New Loadshape.COM-Type3_SA_C 24 1.0 Mult=(0.8821 0.8076 0.7455 0.7332 0.7933 0.7105 0.609  0.5663 0.6909 0.8907 0.8957 0.9849 0.8943 0.866  0.742  0.7095 0.7213 0.6662 0.9015 0.8793 0.9666 0.9382 1.0    0.936)  
New Loadshape.COM-Type3_SU_C 24 1.0 Mult=(0.9492 0.9419 0.9867 1.0    0.9707 0.9526 0.812  0.7773 0.7315 0.757  0.7999 0.7426 0.7612 0.7487 0.7859 0.7636 0.7508 0.8032 0.9344 0.9466 0.9486 0.9766 0.9261 0.9791) 
New Loadshape.COM-Type4_WD_A 24 1.0 Mult=(0.1705 0.1606 0.1606 0.1663 0.1463 0.1476 0.2114 0.5323 0.8096 0.9413 0.9612 0.9119 0.8186 0.8483 0.9256 1.0    0.9581 0.8685 0.7698 0.7458 0.7328 0.6039 0.3083 0.1864) 
New Loadshape.COM-Type4_SA_A 24 1.0 Mult=(0.2301 0.2732 0.2944 0.2963 0.2798 0.2496 0.2535 0.5182 0.8004 0.8266 0.9183 0.8983 0.8865 0.8069 0.8252 0.9393 0.9542 0.9189 1.0    0.9249 0.9608 0.8145 0.4861 0.3337) 
New Loadshape.COM-Type4_SU_A 24 1.0 Mult=(0.4768 0.5068 0.4942 0.4858 0.4888 0.4707 0.502  0.661  0.9143 0.9643 1.0    0.9785 0.9128 0.9717 0.903  0.8943 0.8986 0.9057 0.9308 0.8797 0.8159 0.6168 0.5124 0.4839) 
New Loadshape.COM-Type4_WD_B 24 1.0 Mult=(0.1412 0.1497 0.1422 0.1397 0.1314 0.1315 0.1887 0.5373 0.8318 0.9296 0.9376 0.9342 0.8375 0.8348 0.9017 1.0    0.9596 0.8501 0.7108 0.7164 0.6941 0.5369 0.2547 0.1672) 
New Loadshape.COM-Type4_SA_B 24 1.0 Mult=(0.3628 0.3489 0.3593 0.3522 0.3843 0.3864 0.3499 0.5966 0.8919 0.8978 0.9519 0.944  0.8957 0.8388 0.8247 0.962  0.9882 0.9692 0.9902 1.0    0.9664 0.8001 0.5152 0.4016) 
New Loadshape.COM-Type4_SU_B 24 1.0 Mult=(0.4824 0.4904 0.4925 0.5046 0.5125 0.5046 0.506  0.684  0.9426 0.9997 1.0    0.9604 0.8679 0.9501 0.9465 0.946  0.9232 0.9535 0.9213 0.9264 0.8437 0.6152 0.4786 0.4993) 
New Loadshape.COM-Type4_WD_C 24 1.0 Mult=(0.1934 0.1774 0.1668 0.1687 0.169  0.1595 0.2147 0.547  0.8683 0.9701 0.9808 0.9581 0.8549 0.8995 0.9128 1.0    0.9571 0.8886 0.7798 0.7786 0.7553 0.6072 0.3171 0.2155) 
New Loadshape.COM-Type4_SA_C 24 1.0 Mult=(0.2631 0.2987 0.2841 0.2683 0.2579 0.2597 0.2334 0.465  0.82   0.8617 1.0    0.9564 0.872  0.82   0.7638 0.9083 0.9323 0.887  0.9101 0.9051 0.9358 0.8035 0.4634 0.3125) 
New Loadshape.COM-Type4_SU_C 24 1.0 Mult=(0.413  0.4089 0.4314 0.4188 0.3924 0.3934 0.4435 0.6143 0.8663 0.8952 0.9396 1.0    0.9107 0.9612 0.9486 0.9126 0.8571 0.8302 0.8221 0.9028 0.8575 0.6135 0.4087 0.4191) 
